# DIS package for  MODFLOW-2005, generated by Flopy.
         2         1      1000       306         4         2
  0  0
CONSTANT    1.000000E+00                           #delr                          
CONSTANT    1.000000E+01                           #delc                          
CONSTANT    5.000000E+00                           #model_top                     
CONSTANT   -5.000000E+00                           #botm layer 1                  
CONSTANT   -2.500000E+01                           #botm layer 2                  
      1.000000             1  1.000000  SS 
      1.000000             1  1.000000  TR 
      1.000000             1  1.000000  TR 
      1.000000             1  1.000000  TR 
      1.000000             1  1.000000  TR 
      1.000000             1  1.000000  TR 
      1.000000             1  1.000000  TR 
      1.000000             1  1.000000  TR 
      1.000000             1  1.000000  TR 
      1.000000             1  1.000000  TR 
      1.000000             1  1.000000  TR 
      1.000000             1  1.000000  TR 
      1.000000             1  1.000000  TR 
      1.000000             1  1.000000  TR 
      1.000000             1  1.000000  TR 
      1.000000             1  1.000000  TR 
      1.000000             1  1.000000  TR 
      1.000000             1  1.000000  TR 
      1.000000             1  1.000000  TR 
      1.000000             1  1.000000  TR 
      1.000000             1  1.000000  TR 
      1.000000             1  1.000000  TR 
      1.000000             1  1.000000  TR 
      1.000000             1  1.000000  TR 
      1.000000             1  1.000000  TR 
      1.000000             1  1.000000  TR 
      1.000000             1  1.000000  TR 
      1.000000             1  1.000000  TR 
      1.000000             1  1.000000  TR 
      1.000000             1  1.000000  TR 
      1.000000             1  1.000000  TR 
      1.000000             1  1.000000  TR 
      1.000000             1  1.000000  TR 
      1.000000             1  1.000000  TR 
      1.000000             1  1.000000  TR 
      1.000000             1  1.000000  TR 
      1.000000             1  1.000000  TR 
      1.000000             1  1.000000  TR 
      1.000000             1  1.000000  TR 
      1.000000             1  1.000000  TR 
      1.000000             1  1.000000  TR 
      1.000000             1  1.000000  TR 
      1.000000             1  1.000000  TR 
      1.000000             1  1.000000  TR 
      1.000000             1  1.000000  TR 
      1.000000             1  1.000000  TR 
      1.000000             1  1.000000  TR 
      1.000000             1  1.000000  TR 
      1.000000             1  1.000000  TR 
      1.000000             1  1.000000  TR 
      1.000000             1  1.000000  TR 
      1.000000             1  1.000000  TR 
      1.000000             1  1.000000  TR 
      1.000000             1  1.000000  TR 
      1.000000             1  1.000000  TR 
      1.000000             1  1.000000  TR 
      1.000000             1  1.000000  TR 
      1.000000             1  1.000000  TR 
      1.000000             1  1.000000  TR 
      1.000000             1  1.000000  TR 
      1.000000             1  1.000000  TR 
      1.000000             1  1.000000  TR 
      1.000000             1  1.000000  TR 
      1.000000             1  1.000000  TR 
      1.000000             1  1.000000  TR 
      1.000000             1  1.000000  TR 
      1.000000             1  1.000000  TR 
      1.000000             1  1.000000  TR 
      1.000000             1  1.000000  TR 
      1.000000             1  1.000000  TR 
      1.000000             1  1.000000  TR 
      1.000000             1  1.000000  TR 
      1.000000             1  1.000000  TR 
      1.000000             1  1.000000  TR 
      1.000000             1  1.000000  TR 
      1.000000             1  1.000000  TR 
      1.000000             1  1.000000  TR 
      1.000000             1  1.000000  TR 
      1.000000             1  1.000000  TR 
      1.000000             1  1.000000  TR 
      1.000000             1  1.000000  TR 
      1.000000             1  1.000000  TR 
      1.000000             1  1.000000  TR 
      1.000000             1  1.000000  TR 
      1.000000             1  1.000000  TR 
      1.000000             1  1.000000  TR 
      1.000000             1  1.000000  TR 
      1.000000             1  1.000000  TR 
      1.000000             1  1.000000  TR 
      1.000000             1  1.000000  TR 
      1.000000             1  1.000000  TR 
      1.000000             1  1.000000  TR 
      1.000000             1  1.000000  TR 
      1.000000             1  1.000000  TR 
      1.000000             1  1.000000  TR 
      1.000000             1  1.000000  TR 
      1.000000             1  1.000000  TR 
      1.000000             1  1.000000  TR 
      1.000000             1  1.000000  TR 
      1.000000             1  1.000000  TR 
      1.000000             1  1.000000  TR 
      1.000000             1  1.000000  TR 
      1.000000             1  1.000000  TR 
      1.000000             1  1.000000  TR 
      1.000000             1  1.000000  TR 
      1.000000             1  1.000000  TR 
      1.000000             1  1.000000  TR 
      1.000000             1  1.000000  TR 
      1.000000             1  1.000000  TR 
      1.000000             1  1.000000  TR 
      1.000000             1  1.000000  TR 
      1.000000             1  1.000000  TR 
      1.000000             1  1.000000  TR 
      1.000000             1  1.000000  TR 
      1.000000             1  1.000000  TR 
      1.000000             1  1.000000  TR 
      1.000000             1  1.000000  TR 
      1.000000             1  1.000000  TR 
      1.000000             1  1.000000  TR 
      1.000000             1  1.000000  TR 
      1.000000             1  1.000000  TR 
      1.000000             1  1.000000  TR 
      1.000000             1  1.000000  TR 
      1.000000             1  1.000000  TR 
      1.000000             1  1.000000  TR 
      1.000000             1  1.000000  TR 
      1.000000             1  1.000000  TR 
      1.000000             1  1.000000  TR 
      1.000000             1  1.000000  TR 
      1.000000             1  1.000000  TR 
      1.000000             1  1.000000  TR 
      1.000000             1  1.000000  TR 
      1.000000             1  1.000000  TR 
      1.000000             1  1.000000  TR 
      1.000000             1  1.000000  TR 
      1.000000             1  1.000000  TR 
      1.000000             1  1.000000  TR 
      1.000000             1  1.000000  TR 
      1.000000             1  1.000000  TR 
      1.000000             1  1.000000  TR 
      1.000000             1  1.000000  TR 
      1.000000             1  1.000000  TR 
      1.000000             1  1.000000  TR 
      1.000000             1  1.000000  TR 
      1.000000             1  1.000000  TR 
      1.000000             1  1.000000  TR 
      1.000000             1  1.000000  TR 
      1.000000             1  1.000000  TR 
      1.000000             1  1.000000  TR 
      1.000000             1  1.000000  TR 
      1.000000             1  1.000000  TR 
      1.000000             1  1.000000  TR 
      1.000000             1  1.000000  TR 
      1.000000             1  1.000000  TR 
      1.000000             1  1.000000  TR 
      1.000000             1  1.000000  TR 
      1.000000             1  1.000000  TR 
      1.000000             1  1.000000  TR 
      1.000000             1  1.000000  TR 
      1.000000             1  1.000000  TR 
      1.000000             1  1.000000  TR 
      1.000000             1  1.000000  TR 
      1.000000             1  1.000000  TR 
      1.000000             1  1.000000  TR 
      1.000000             1  1.000000  TR 
      1.000000             1  1.000000  TR 
      1.000000             1  1.000000  TR 
      1.000000             1  1.000000  TR 
      1.000000             1  1.000000  TR 
      1.000000             1  1.000000  TR 
      1.000000             1  1.000000  TR 
      1.000000             1  1.000000  TR 
      1.000000             1  1.000000  TR 
      1.000000             1  1.000000  TR 
      1.000000             1  1.000000  TR 
      1.000000             1  1.000000  TR 
      1.000000             1  1.000000  TR 
      1.000000             1  1.000000  TR 
      1.000000             1  1.000000  TR 
      1.000000             1  1.000000  TR 
      1.000000             1  1.000000  TR 
      1.000000             1  1.000000  TR 
      1.000000             1  1.000000  TR 
      1.000000             1  1.000000  TR 
      1.000000             1  1.000000  TR 
      1.000000             1  1.000000  TR 
      1.000000             1  1.000000  TR 
      1.000000             1  1.000000  TR 
      1.000000             1  1.000000  TR 
      1.000000             1  1.000000  TR 
      1.000000             1  1.000000  TR 
      1.000000             1  1.000000  TR 
      1.000000             1  1.000000  TR 
      1.000000             1  1.000000  TR 
      1.000000             1  1.000000  TR 
      1.000000             1  1.000000  TR 
      1.000000             1  1.000000  TR 
      1.000000             1  1.000000  TR 
      1.000000             1  1.000000  TR 
      1.000000             1  1.000000  TR 
      1.000000             1  1.000000  TR 
      1.000000             1  1.000000  TR 
      1.000000             1  1.000000  TR 
      1.000000             1  1.000000  TR 
      1.000000             1  1.000000  TR 
      1.000000             1  1.000000  TR 
      1.000000             1  1.000000  TR 
      1.000000             1  1.000000  TR 
      1.000000             1  1.000000  TR 
      1.000000             1  1.000000  TR 
      1.000000             1  1.000000  TR 
      1.000000             1  1.000000  TR 
      1.000000             1  1.000000  TR 
      1.000000             1  1.000000  TR 
      1.000000             1  1.000000  TR 
      1.000000             1  1.000000  TR 
      1.000000             1  1.000000  TR 
      1.000000             1  1.000000  TR 
      1.000000             1  1.000000  TR 
      1.000000             1  1.000000  TR 
      1.000000             1  1.000000  TR 
      1.000000             1  1.000000  TR 
      1.000000             1  1.000000  TR 
      1.000000             1  1.000000  TR 
      1.000000             1  1.000000  TR 
      1.000000             1  1.000000  TR 
      1.000000             1  1.000000  TR 
      1.000000             1  1.000000  TR 
      1.000000             1  1.000000  TR 
      1.000000             1  1.000000  TR 
      1.000000             1  1.000000  TR 
      1.000000             1  1.000000  TR 
      1.000000             1  1.000000  TR 
      1.000000             1  1.000000  TR 
      1.000000             1  1.000000  TR 
      1.000000             1  1.000000  TR 
      1.000000             1  1.000000  TR 
      1.000000             1  1.000000  TR 
      1.000000             1  1.000000  TR 
      1.000000             1  1.000000  TR 
      1.000000             1  1.000000  TR 
      1.000000             1  1.000000  TR 
      1.000000             1  1.000000  TR 
      1.000000             1  1.000000  TR 
      1.000000             1  1.000000  TR 
      1.000000             1  1.000000  TR 
      1.000000             1  1.000000  TR 
      1.000000             1  1.000000  TR 
      1.000000             1  1.000000  TR 
      1.000000             1  1.000000  TR 
      1.000000             1  1.000000  TR 
      1.000000             1  1.000000  TR 
      1.000000             1  1.000000  TR 
      1.000000             1  1.000000  TR 
      1.000000             1  1.000000  TR 
      1.000000             1  1.000000  TR 
      1.000000             1  1.000000  TR 
      1.000000             1  1.000000  TR 
      1.000000             1  1.000000  TR 
      1.000000             1  1.000000  TR 
      1.000000             1  1.000000  TR 
      1.000000             1  1.000000  TR 
      1.000000             1  1.000000  TR 
      1.000000             1  1.000000  TR 
      1.000000             1  1.000000  TR 
      1.000000             1  1.000000  TR 
      1.000000             1  1.000000  TR 
      1.000000             1  1.000000  TR 
      1.000000             1  1.000000  TR 
      1.000000             1  1.000000  TR 
      1.000000             1  1.000000  TR 
      1.000000             1  1.000000  TR 
      1.000000             1  1.000000  TR 
      1.000000             1  1.000000  TR 
      1.000000             1  1.000000  TR 
      1.000000             1  1.000000  TR 
      1.000000             1  1.000000  TR 
      1.000000             1  1.000000  TR 
      1.000000             1  1.000000  TR 
      1.000000             1  1.000000  TR 
      1.000000             1  1.000000  TR 
      1.000000             1  1.000000  TR 
      1.000000             1  1.000000  TR 
      1.000000             1  1.000000  TR 
      1.000000             1  1.000000  TR 
      1.000000             1  1.000000  TR 
      1.000000             1  1.000000  TR 
      1.000000             1  1.000000  TR 
      1.000000             1  1.000000  TR 
      1.000000             1  1.000000  TR 
      1.000000             1  1.000000  TR 
      1.000000             1  1.000000  TR 
      1.000000             1  1.000000  TR 
      1.000000             1  1.000000  TR 
      1.000000             1  1.000000  TR 
      1.000000             1  1.000000  TR 
      1.000000             1  1.000000  TR 
      1.000000             1  1.000000  TR 
      1.000000             1  1.000000  TR 
      1.000000             1  1.000000  TR 
      1.000000             1  1.000000  TR 
      1.000000             1  1.000000  TR 
      1.000000             1  1.000000  TR 
      1.000000             1  1.000000  TR 
      1.000000             1  1.000000  TR 
      1.000000             1  1.000000  TR 
