# OC package for  MODFLOW-2005, generated by Flopy.
HEAD PRINT FORMAT   0
HEAD SAVE UNIT    51
DRAWDOWN PRINT FORMAT   0
COMPACT BUDGET AUX

period 1 step 1 
  save head

period 2 step 1 
  save head

period 3 step 1 
  save head

period 4 step 1 
  save head

period 5 step 1 
  save head

period 6 step 1 
  save head

period 7 step 1 
  save head

period 8 step 1 
  save head

period 9 step 1 
  save head

period 10 step 1 
  save head

period 11 step 1 
  save head

period 12 step 1 
  save head

period 13 step 1 
  save head

period 14 step 1 
  save head

period 15 step 1 
  save head

period 16 step 1 
  save head

period 17 step 1 
  save head

period 18 step 1 
  save head

period 19 step 1 
  save head

period 20 step 1 
  save head

period 21 step 1 
  save head

period 22 step 1 
  save head

period 23 step 1 
  save head

period 24 step 1 
  save head

period 25 step 1 
  save head

period 26 step 1 
  save head

period 27 step 1 
  save head

period 28 step 1 
  save head

period 29 step 1 
  save head

period 30 step 1 
  save head

period 31 step 1 
  save head

period 32 step 1 
  save head

period 33 step 1 
  save head

period 34 step 1 
  save head

period 35 step 1 
  save head

period 36 step 1 
  save head

period 37 step 1 
  save head

period 38 step 1 
  save head

period 39 step 1 
  save head

period 40 step 1 
  save head

period 41 step 1 
  save head

period 42 step 1 
  save head

period 43 step 1 
  save head

period 44 step 1 
  save head

period 45 step 1 
  save head

period 46 step 1 
  save head

period 47 step 1 
  save head

period 48 step 1 
  save head

period 49 step 1 
  save head

period 50 step 1 
  save head

period 51 step 1 
  save head

period 52 step 1 
  save head

period 53 step 1 
  save head

period 54 step 1 
  save head

period 55 step 1 
  save head

period 56 step 1 
  save head

period 57 step 1 
  save head

period 58 step 1 
  save head

period 59 step 1 
  save head

period 60 step 1 
  save head

period 61 step 1 
  save head

period 62 step 1 
  save head

period 63 step 1 
  save head

period 64 step 1 
  save head

period 65 step 1 
  save head

period 66 step 1 
  save head

period 67 step 1 
  save head

period 68 step 1 
  save head

period 69 step 1 
  save head

period 70 step 1 
  save head

period 71 step 1 
  save head

period 72 step 1 
  save head

period 73 step 1 
  save head

period 74 step 1 
  save head

period 75 step 1 
  save head

period 76 step 1 
  save head

period 77 step 1 
  save head

period 78 step 1 
  save head

period 79 step 1 
  save head

period 80 step 1 
  save head

period 81 step 1 
  save head

period 82 step 1 
  save head

period 83 step 1 
  save head

period 84 step 1 
  save head

period 85 step 1 
  save head

period 86 step 1 
  save head

period 87 step 1 
  save head

period 88 step 1 
  save head

period 89 step 1 
  save head

period 90 step 1 
  save head

period 91 step 1 
  save head

period 92 step 1 
  save head

period 93 step 1 
  save head

period 94 step 1 
  save head

period 95 step 1 
  save head

period 96 step 1 
  save head

period 97 step 1 
  save head

period 98 step 1 
  save head

period 99 step 1 
  save head

period 100 step 1 
  save head

period 101 step 1 
  save head

period 102 step 1 
  save head

period 103 step 1 
  save head

period 104 step 1 
  save head

period 105 step 1 
  save head

period 106 step 1 
  save head

period 107 step 1 
  save head

period 108 step 1 
  save head

period 109 step 1 
  save head

period 110 step 1 
  save head

period 111 step 1 
  save head

period 112 step 1 
  save head

period 113 step 1 
  save head

period 114 step 1 
  save head

period 115 step 1 
  save head

period 116 step 1 
  save head

period 117 step 1 
  save head

period 118 step 1 
  save head

period 119 step 1 
  save head

period 120 step 1 
  save head

period 121 step 1 
  save head

period 122 step 1 
  save head

period 123 step 1 
  save head

period 124 step 1 
  save head

period 125 step 1 
  save head

period 126 step 1 
  save head

period 127 step 1 
  save head

period 128 step 1 
  save head

period 129 step 1 
  save head

period 130 step 1 
  save head

period 131 step 1 
  save head

period 132 step 1 
  save head

period 133 step 1 
  save head

period 134 step 1 
  save head

period 135 step 1 
  save head

period 136 step 1 
  save head

period 137 step 1 
  save head

period 138 step 1 
  save head

period 139 step 1 
  save head

period 140 step 1 
  save head

period 141 step 1 
  save head

period 142 step 1 
  save head

period 143 step 1 
  save head

period 144 step 1 
  save head

period 145 step 1 
  save head

period 146 step 1 
  save head

period 147 step 1 
  save head

period 148 step 1 
  save head

period 149 step 1 
  save head

period 150 step 1 
  save head

period 151 step 1 
  save head

period 152 step 1 
  save head

period 153 step 1 
  save head

period 154 step 1 
  save head

period 155 step 1 
  save head

period 156 step 1 
  save head

period 157 step 1 
  save head

period 158 step 1 
  save head

period 159 step 1 
  save head

period 160 step 1 
  save head

period 161 step 1 
  save head

period 162 step 1 
  save head

period 163 step 1 
  save head

period 164 step 1 
  save head

period 165 step 1 
  save head

period 166 step 1 
  save head

period 167 step 1 
  save head

period 168 step 1 
  save head

period 169 step 1 
  save head

period 170 step 1 
  save head

period 171 step 1 
  save head

period 172 step 1 
  save head

period 173 step 1 
  save head

period 174 step 1 
  save head

period 175 step 1 
  save head

period 176 step 1 
  save head

period 177 step 1 
  save head

period 178 step 1 
  save head

period 179 step 1 
  save head

period 180 step 1 
  save head

period 181 step 1 
  save head

period 182 step 1 
  save head

period 183 step 1 
  save head

period 184 step 1 
  save head

period 185 step 1 
  save head

period 186 step 1 
  save head

period 187 step 1 
  save head

period 188 step 1 
  save head

period 189 step 1 
  save head

period 190 step 1 
  save head

period 191 step 1 
  save head

period 192 step 1 
  save head

period 193 step 1 
  save head

period 194 step 1 
  save head

period 195 step 1 
  save head

period 196 step 1 
  save head

period 197 step 1 
  save head

period 198 step 1 
  save head

period 199 step 1 
  save head

period 200 step 1 
  save head

period 201 step 1 
  save head

period 202 step 1 
  save head

period 203 step 1 
  save head

period 204 step 1 
  save head

period 205 step 1 
  save head

period 206 step 1 
  save head

period 207 step 1 
  save head

period 208 step 1 
  save head

period 209 step 1 
  save head

period 210 step 1 
  save head

period 211 step 1 
  save head

period 212 step 1 
  save head

period 213 step 1 
  save head

period 214 step 1 
  save head

period 215 step 1 
  save head

period 216 step 1 
  save head

period 217 step 1 
  save head

period 218 step 1 
  save head

period 219 step 1 
  save head

period 220 step 1 
  save head

period 221 step 1 
  save head

period 222 step 1 
  save head

period 223 step 1 
  save head

period 224 step 1 
  save head

period 225 step 1 
  save head

period 226 step 1 
  save head

period 227 step 1 
  save head

period 228 step 1 
  save head

period 229 step 1 
  save head

period 230 step 1 
  save head

period 231 step 1 
  save head

period 232 step 1 
  save head

period 233 step 1 
  save head

period 234 step 1 
  save head

period 235 step 1 
  save head

period 236 step 1 
  save head

period 237 step 1 
  save head

period 238 step 1 
  save head

period 239 step 1 
  save head

period 240 step 1 
  save head

period 241 step 1 
  save head

period 242 step 1 
  save head

period 243 step 1 
  save head

period 244 step 1 
  save head

period 245 step 1 
  save head

period 246 step 1 
  save head

period 247 step 1 
  save head

period 248 step 1 
  save head

period 249 step 1 
  save head

period 250 step 1 
  save head

period 251 step 1 
  save head

period 252 step 1 
  save head

period 253 step 1 
  save head

period 254 step 1 
  save head

period 255 step 1 
  save head

period 256 step 1 
  save head

period 257 step 1 
  save head

period 258 step 1 
  save head

period 259 step 1 
  save head

period 260 step 1 
  save head

period 261 step 1 
  save head

period 262 step 1 
  save head

period 263 step 1 
  save head

period 264 step 1 
  save head

period 265 step 1 
  save head

period 266 step 1 
  save head

period 267 step 1 
  save head

period 268 step 1 
  save head

period 269 step 1 
  save head

period 270 step 1 
  save head

period 271 step 1 
  save head

period 272 step 1 
  save head

