<<<<<<< HEAD
# Name file for MODFLOW-2005, generated by Flopy version 3.2.10.
#xul:0; yul:0; rotation:0; proj4_str:+init=EPSG:4326; units:meters; lenuni:2; length_multiplier:1.0 ;start_datetime:2018-03-01 00:00:00
=======
# Name file for MODFLOW-2005, generated by Flopy version 3.2.9.
#xul:0; yul:10; rotation:0; proj4_str:+init=EPSG:4326; units:meters; lenuni:2; length_multiplier:1.0 ;start_datetime:2018-03-01 00:00:00
>>>>>>> 2e9816b13b9eaee18904dc26a7005f8122bcf301
LIST               2  2018.list
DIS               11  2018.dis 
BAS6              13  2018.bas 
BCF6              15  2018.bcf 
OC                14  2018.oc 
PCG               27  2018.pcg 
RCH               19  2018.rch 
RIV               18  2018.riv 
DATA(BINARY)      51  2018.hds REPLACE
